CM Center-fed 22m wire poor ground
CE --- End Comments ---
GW     1    15   0.00000E+00 -1.10000E+01  1.00000E+01  0.00000E+00  1.10000E+01  1.00000E+01  1.00000E-03
GE     1     0   0.00000E+00  0.00000E+00  0.00000E+00  0.00000E+00  0.00000E+00  0.00000E+00  0.00000E+00
EX     0     1     8      0  1.00000E+00  0.00000E+00  0.00000E+00  0.00000E+00  0.00000E+00  0.00000E+00
FR     0   541     0      0  3.00000E+00  5.00000E-02  3.00000E+01  0.00000E+00  0.00000E+00  0.00000E+00
LD     5     1     0      0  5.80000E+07  0.00000E+00  0.00000E+00  0.00000E+00  0.00000E+00  0.00000E+00
GN     0     0     0      0  4.00000E+00  1.00000E-02  0.00000E+00  0.00000E+00  0.00000E+00  0.00000E+00
RP     0    37    37   1000  0.00000E+00  0.00000E+00  2.50000E+00  1.00000E+01  0.00000E+00  0.00000E+00
EN     0     0     0      0  0.00000E+00  0.00000E+00  0.00000E+00  0.00000E+00  0.00000E+00  0.00000E+00
